Version 4
SHEET 1 1056 832
WIRE 736 96 528 96
WIRE 528 160 528 96
WIRE 736 192 736 96
WIRE 528 304 528 240
WIRE 256 352 160 352
WIRE 464 352 336 352
WIRE 160 384 160 352
WIRE 528 496 528 400
WIRE 528 496 320 496
WIRE 688 496 528 496
WIRE 320 544 320 496
WIRE 688 544 688 496
WIRE 64 592 0 592
WIRE 256 592 144 592
WIRE 880 592 752 592
WIRE 1040 592 960 592
WIRE 0 656 0 592
WIRE 1040 656 1040 592
WIRE 320 816 320 640
WIRE 688 816 688 640
FLAG 736 192 0
FLAG 688 816 0
FLAG 320 816 0
FLAG 160 384 0
FLAG 0 656 0
FLAG 1040 656 0
SYMBOL voltage 528 256 R180
WINDOW 0 24 96 Left 2
WINDOW 3 24 16 Left 2
SYMATTR InstName V2
SYMBOL pnp 464 304 R0
SYMATTR InstName Q1
SYMBOL pnp 256 544 R0
SYMATTR InstName Q2
SYMBOL pnp 752 640 R180
SYMATTR InstName Q3
SYMBOL voltage 352 352 R90
WINDOW 0 -32 56 VBottom 2
WINDOW 3 32 56 VTop 2
SYMATTR InstName V1
SYMBOL voltage 160 592 R90
WINDOW 0 -32 56 VBottom 2
WINDOW 3 32 56 VTop 2
SYMATTR InstName V3
SYMBOL voltage 864 592 R270
WINDOW 0 32 56 VTop 2
WINDOW 3 -32 56 VBottom 2
SYMATTR InstName V4
